ligands.smi:1
                    3D
 Schrodinger Suite 2023-4.
 52 54  0  0  1  0            999 V2000
   -0.4937   -0.9001   -1.1555 C   0  0  0  0  0  0
   -0.0141   -0.1827    0.1222 C   0  0  1  0  0  0
   -0.6679   -0.7449    1.4132 C   0  0  0  0  0  0
   -2.1873   -0.7374    1.3703 C   0  0  0  0  0  0
   -2.8984   -1.9471    1.2177 C   0  0  0  0  0  0
   -4.3061   -1.9419    1.1760 C   0  0  0  0  0  0
   -5.0099   -0.7274    1.2866 C   0  0  0  0  0  0
   -4.3053    0.4818    1.4412 C   0  0  0  0  0  0
   -2.8975    0.4770    1.4841 C   0  0  0  0  0  0
    1.4602   -0.1484    0.1404 N   0  0  2  0  0  0
    2.0856   -1.4628    0.2841 C   0  0  0  0  0  0
    3.5662   -1.1489    0.4443 C   0  0  0  0  0  0
    3.5998    0.2365    1.0877 C   0  0  1  0  0  0
    4.4746    1.1327    0.3063 N   0  3  0  0  0  0
    2.1154    0.6828    1.1596 C   0  0  1  0  0  0
    1.8686    2.2237    1.0858 C   0  0  0  0  0  0
    0.6839    2.6881    1.9610 C   0  0  0  0  0  0
    0.5325    4.2187    1.9395 C   0  0  0  0  0  0
    0.4045    4.7131    0.5522 N   0  3  0  0  0  0
    1.5575    4.3426   -0.2964 C   0  0  0  0  0  0
    1.7362    2.8151   -0.3401 C   0  0  0  0  0  0
   -0.3544    0.8430    0.0119 H   0  0  0  0  0  0
    4.0083    0.1781    2.0973 H   0  0  0  0  0  0
    4.1253    1.1996   -0.6391 H   0  0  0  0  0  0
    5.4122    0.7568    0.2911 H   0  0  0  0  0  0
    1.7629    0.3380    2.1321 H   0  0  0  0  0  0
   -1.5589   -0.7391   -1.3223 H   0  0  0  0  0  0
   -0.3340   -1.9773   -1.1032 H   0  0  0  0  0  0
    0.0260   -0.5258   -2.0382 H   0  0  0  0  0  0
   -0.3465   -1.7694    1.5980 H   0  0  0  0  0  0
   -0.3638   -0.1689    2.2865 H   0  0  0  0  0  0
   -2.3679   -2.8840    1.1299 H   0  0  0  0  0  0
   -4.8458   -2.8699    1.0589 H   0  0  0  0  0  0
   -6.0894   -0.7235    1.2534 H   0  0  0  0  0  0
   -4.8456    1.4132    1.5272 H   0  0  0  0  0  0
   -2.3687    1.4099    1.6034 H   0  0  0  0  0  0
    1.7347   -1.9696    1.1822 H   0  0  0  0  0  0
    1.9010   -2.1128   -0.5712 H   0  0  0  0  0  0
    4.0730   -1.8995    1.0518 H   0  0  0  0  0  0
    4.0439   -1.1465   -0.5369 H   0  0  0  0  0  0
    2.7396    2.6951    1.5436 H   0  0  0  0  0  0
   -0.2469    2.2425    1.6205 H   0  0  0  0  0  0
    0.8239    2.3524    2.9892 H   0  0  0  0  0  0
   -0.3488    4.5194    2.5067 H   0  0  0  0  0  0
    1.3932    4.6933    2.4128 H   0  0  0  0  0  0
   -0.4345    4.3231    0.1465 H   0  0  0  0  0  0
    1.3980    4.7326   -1.3018 H   0  0  0  0  0  0
    2.4582    4.8203    0.0915 H   0  0  0  0  0  0
    2.6101    2.5728   -0.9433 H   0  0  0  0  0  0
    0.8846    2.3826   -0.8630 H   0  0  0  0  0  0
    0.3186    5.7196    0.5697 H   0  0  0  0  0  0
    4.4870    2.0494    0.7293 H   0  0  0  0  0  0
  1  2  1  0  0  0
  1 27  1  0  0  0
  1 28  1  0  0  0
  1 29  1  0  0  0
  2 22  1  0  0  0
  2  3  1  0  0  0
  2 10  1  0  0  0
  3  4  1  0  0  0
  3 30  1  0  0  0
  3 31  1  0  0  0
  4  9  1  0  0  0
  4  5  2  0  0  0
  5  6  1  0  0  0
  5 32  1  0  0  0
  6  7  2  0  0  0
  6 33  1  0  0  0
  7  8  1  0  0  0
  7 34  1  0  0  0
  8  9  2  0  0  0
  8 35  1  0  0  0
  9 36  1  0  0  0
 10 15  1  0  0  0
 10 11  1  0  0  0
 11 12  1  0  0  0
 11 37  1  0  0  0
 11 38  1  0  0  0
 12 13  1  0  0  0
 12 39  1  0  0  0
 12 40  1  0  0  0
 13 23  1  0  0  0
 13 14  1  0  0  0
 13 15  1  0  0  0
 14 24  1  0  0  0
 14 25  1  0  0  0
 14 52  1  0  0  0
 15 26  1  0  0  0
 15 16  1  0  0  0
 16 21  1  0  0  0
 16 17  1  0  0  0
 16 41  1  0  0  0
 17 18  1  0  0  0
 17 42  1  0  0  0
 17 43  1  0  0  0
 18 19  1  0  0  0
 18 44  1  0  0  0
 18 45  1  0  0  0
 19 20  1  0  0  0
 19 46  1  0  0  0
 19 51  1  0  0  0
 20 21  1  0  0  0
 20 47  1  0  0  0
 20 48  1  0  0  0
 21 49  1  0  0  0
 21 50  1  0  0  0
M  CHG  2  14   1  19   1
M  END
> <i_epik_Tot_Q>
2

> <i_epik_Tot_abs_Q>
2

> <i_f3d_flags>
0

> <i_lp_mmshare_version>
61128

> <i_m_Source_File_Index>
2

> <b_lp_Chiralities_Consistent>
1

> <b_m_subgroup_collapsed>
0

> <r_epik_Charging_Adjusted_Penalty>
0.251777

> <r_epik_Ionization_Penalty>
0.0105

> <r_epik_Ionization_Penalty_Charging>
0.003

> <r_epik_Ionization_Penalty_Neutral>
0.0075

> <r_epik_State_Penalty>
0.2488

> <r_lp_Energy>
56.5692

> <s_epik_cmdline>
J2VwaWtfcHl0aG9uJywgJy1waCcsICc3LjAnLCAnLXRuJywgJzgnLCAnLW1hJywgJzIwMCcsICctaW1hZScsICc8aW5maWxlLm1hZT4nLCAnLW9tYWUnLCAnPG91dGZpbGUubWFlPic=

> <s_epik_input>
W2NIXTFbY0hdW2NIXVtjSF1bY0hdYzFbQ0gyXVtDQEhdKFtDSDNdKU4yW0NIMl1bQ0gyXVtDQEBIXShbTkgyXSlbQ0BIXTJbQ0hdM1tDSDJdW0NIMl1bTkhdW0NIMl1bQ0gyXTM=

> <s_lp_Force_Field>
OPLS_2005

> <s_lp_Variant>
ligands.smi:1-1

> <s_m_Source_File>
all_ligands_prep.mae

> <s_m_Source_Path>
/home/jvilalta

> <s_m_entry_id>
104

> <s_m_entry_name>
ligands_prep.1

> <s_m_subgroup_title>
ligprep

> <s_m_subgroupid>
ligprep1

$$$$
ligands.smi:2
                    3D
 Schrodinger Suite 2023-4.
 33 34  0  0  1  0            999 V2000
   -4.3543   -0.5856    0.4227 N   0  0  0  0  0  0
   -2.9882   -0.3310    0.3346 C   0  0  0  0  0  0
   -2.1138   -1.3269   -0.1398 C   0  0  0  0  0  0
   -0.7316   -1.0433   -0.2199 C   0  0  0  0  0  0
    0.2418   -2.1001   -0.7372 C   0  0  0  0  0  0
    0.8693   -1.6468   -1.8230 F   0  0  0  0  0  0
    1.1478   -2.3834    0.1991 F   0  0  0  0  0  0
   -0.3834   -3.2320   -1.0635 F   0  0  0  0  0  0
   -0.2816    0.2367    0.1959 C   0  0  0  0  0  0
    1.0819    0.5666    0.1084 N   0  0  0  0  0  0
    1.8549    1.4035    0.9304 C   0  0  0  0  0  0
    1.3069    1.8824    2.0710 N   0  0  0  0  0  0
    2.0529    2.6737    2.8680 C   0  0  0  0  0  0
    3.3837    3.0244    2.5760 C   0  0  0  0  0  0
    3.9691    2.5202    1.3973 C   0  0  0  0  0  0
    5.4040    2.8821    1.0570 C   0  0  0  0  0  0
    5.4488    3.9912    0.0900 N   0  3  0  0  0  0
    3.1900    1.6910    0.5547 C   0  0  0  0  0  0
    3.8506    1.0484   -0.9131 Cl  0  0  0  0  0  0
   -1.2538    1.1640    0.6417 C   0  0  0  0  0  0
   -2.5730    0.8926    0.7148 N   0  0  0  0  0  0
    6.4101    4.2223   -0.1163 H   0  0  0  0  0  0
    4.9832    4.7977    0.4810 H   0  0  0  0  0  0
   -4.7456   -1.4769    0.1544 H   0  0  0  0  0  0
   -4.9977    0.1159    0.7602 H   0  0  0  0  0  0
   -2.5039   -2.2891   -0.4374 H   0  0  0  0  0  0
    1.6073    0.0536   -0.5851 H   0  0  0  0  0  0
    1.5748    3.0382    3.7652 H   0  0  0  0  0  0
    3.9389    3.6627    3.2478 H   0  0  0  0  0  0
    5.9370    3.1800    1.9606 H   0  0  0  0  0  0
    5.9328    2.0186    0.6532 H   0  0  0  0  0  0
   -0.9813    2.1687    0.9273 H   0  0  0  0  0  0
    4.9789    3.7114   -0.7594 H   0  0  0  0  0  0
  1  2  1  0  0  0
  1 24  1  0  0  0
  1 25  1  0  0  0
  2 21  1  0  0  0
  2  3  2  0  0  0
  3  4  1  0  0  0
  3 26  1  0  0  0
  4  5  1  0  0  0
  4  9  2  0  0  0
  5  6  1  0  0  0
  5  7  1  0  0  0
  5  8  1  0  0  0
  9 10  1  0  0  0
  9 20  1  0  0  0
 10 11  1  0  0  0
 10 27  1  0  0  0
 11 18  1  0  0  0
 11 12  2  0  0  0
 12 13  1  0  0  0
 13 14  2  0  0  0
 13 28  1  0  0  0
 14 15  1  0  0  0
 14 29  1  0  0  0
 15 16  1  0  0  0
 15 18  2  0  0  0
 16 17  1  0  0  0
 16 30  1  0  0  0
 16 31  1  0  0  0
 17 22  1  0  0  0
 17 23  1  0  0  0
 17 33  1  0  0  0
 18 19  1  0  0  0
 20 21  2  0  0  0
 20 32  1  0  0  0
M  CHG  1  17   1
M  END
> <i_epik_Tot_Q>
1

> <i_epik_Tot_abs_Q>
1

> <i_f3d_flags>
0

> <i_lp_mmshare_version>
61128

> <i_m_Source_File_Index>
5

> <b_lp_Chiralities_Consistent>
1

> <b_m_subgroup_collapsed>
0

> <r_epik_Charging_Adjusted_Penalty>
0.193004

> <r_epik_Ionization_Penalty>
0.0966

> <r_epik_Ionization_Penalty_Charging>
0.0965

> <r_epik_Ionization_Penalty_Neutral>
0.0001

> <r_epik_State_Penalty>
0.0965

> <r_lp_Energy>
8.29412

> <r_lp_tautomer_probability>
1

> <s_epik_cmdline>
J2VwaWtfcHl0aG9uJywgJy1waCcsICc3LjAnLCAnLXRuJywgJzgnLCAnLW1hJywgJzIwMCcsICctaW1hZScsICc8aW5maWxlLm1hZT4nLCAnLW9tYWUnLCAnPG91dGZpbGUubWFlPic=

> <s_epik_input>
W05IMl1jMVtjSF1jKEMoRikoRilGKWMoW2NIXW4xKVtOSF1jMm5bY0hdW2NIXWMoYzJDbClbQ0gyXVtOSDJd

> <s_lp_Force_Field>
OPLS_2005

> <s_lp_Variant>
ligands.smi:2-1

> <s_m_Source_File>
all_ligands_prep.mae

> <s_m_Source_Path>
/home/jvilalta

> <s_m_entry_id>
107

> <s_m_entry_name>
ligands_prep.4

> <s_m_subgroup_title>
ligprep

> <s_m_subgroupid>
ligprep1

$$$$
ligands.smi:3
                    3D
 Schrodinger Suite 2023-4.
 52 54  0  0  1  0            999 V2000
   -3.0369    3.0463   -1.3981 N   0  3  0  0  0  0
   -2.9692    1.6989   -1.9871 C   0  0  0  0  0  0
   -2.1323    0.7743   -1.1244 C   0  0  0  0  0  0
   -2.7815   -0.1550   -0.4219 N   0  0  0  0  0  0
   -2.0370   -0.9852    0.3428 C   0  0  0  0  0  0
   -2.8274   -2.0123    1.1390 C   0  0  0  0  0  0
   -2.9134   -1.6262    2.5569 N   0  3  0  0  0  0
   -0.6213   -0.8765    0.4061 C   0  0  0  0  0  0
    0.2173   -1.7947    1.2910 C   0  0  0  0  0  0
    0.3096   -1.3244    2.6177 O   0  0  0  0  0  0
   -0.0490    0.1620   -0.3796 C   0  0  0  0  0  0
    1.4373    0.4899   -0.3978 C   0  0  0  0  0  0
    1.8201    1.4826    0.7109 C   0  0  0  0  0  0
    3.2959    1.8532    0.6725 C   0  0  0  0  0  0
    3.6827    2.9485   -0.1279 C   0  0  0  0  0  0
    5.0290    3.3442   -0.1959 C   0  0  0  0  0  0
    6.0003    2.6450    0.5395 C   0  0  0  0  0  0
    5.6342    1.5474    1.3446 C   0  0  0  0  0  0
    4.2751    1.1362    1.4121 C   0  0  0  0  0  0
    3.8662   -0.0456    2.2925 C   0  0  0  0  0  0
    5.0358   -0.9160    2.7705 C   0  0  0  0  0  0
    6.2058   -0.0574    3.2500 C   0  0  0  0  0  0
    6.7316    0.8216    2.1106 C   0  0  0  0  0  0
   -0.8158    0.9815   -1.1334 N   0  0  0  0  0  0
   -3.5812    3.6514   -1.9959 H   0  0  0  0  0  0
   -2.1006    3.4144   -1.3062 H   0  0  0  0  0  0
   -3.4391   -2.3211    3.0673 H   0  0  0  0  0  0
   -3.3735   -0.7304    2.6324 H   0  0  0  0  0  0
   -3.9802    1.3060   -2.1045 H   0  0  0  0  0  0
   -2.5319    1.7648   -2.9842 H   0  0  0  0  0  0
   -3.8405   -2.0963    0.7428 H   0  0  0  0  0  0
   -2.3816   -3.0020    1.0474 H   0  0  0  0  0  0
   -0.2034   -2.7987    1.3073 H   0  0  0  0  0  0
    1.2212   -1.9261    0.8951 H   0  0  0  0  0  0
    0.8860   -1.8979    3.1011 H   0  0  0  0  0  0
    2.0415   -0.4128   -0.3423 H   0  0  0  0  0  0
    1.6823    0.9288   -1.3664 H   0  0  0  0  0  0
    1.2314    2.3942    0.5989 H   0  0  0  0  0  0
    1.5520    1.0867    1.6897 H   0  0  0  0  0  0
    2.9426    3.4935   -0.6955 H   0  0  0  0  0  0
    5.3163    4.1845   -0.8107 H   0  0  0  0  0  0
    7.0339    2.9540    0.4829 H   0  0  0  0  0  0
    3.3425    0.3561    3.1607 H   0  0  0  0  0  0
    3.1569   -0.6801    1.7631 H   0  0  0  0  0  0
    4.7023   -1.5903    3.5599 H   0  0  0  0  0  0
    5.3767   -1.5473    1.9486 H   0  0  0  0  0  0
    5.8712    0.5739    4.0743 H   0  0  0  0  0  0
    7.0085   -0.6827    3.6421 H   0  0  0  0  0  0
    7.2786    0.2036    1.3977 H   0  0  0  0  0  0
    7.4445    1.5469    2.5049 H   0  0  0  0  0  0
   -3.4676    2.9924   -0.4863 H   0  0  0  0  0  0
   -1.9809   -1.5570    2.9402 H   0  0  0  0  0  0
  1 25  1  0  0  0
  1 26  1  0  0  0
  1  2  1  0  0  0
  1 51  1  0  0  0
  2  3  1  0  0  0
  2 29  1  0  0  0
  2 30  1  0  0  0
  3 24  1  0  0  0
  3  4  2  0  0  0
  4  5  1  0  0  0
  5  6  1  0  0  0
  5  8  2  0  0  0
  6  7  1  0  0  0
  6 31  1  0  0  0
  6 32  1  0  0  0
  7 27  1  0  0  0
  7 28  1  0  0  0
  7 52  1  0  0  0
  8  9  1  0  0  0
  8 11  1  0  0  0
  9 10  1  0  0  0
  9 33  1  0  0  0
  9 34  1  0  0  0
 10 35  1  0  0  0
 11 12  1  0  0  0
 11 24  2  0  0  0
 12 13  1  0  0  0
 12 36  1  0  0  0
 12 37  1  0  0  0
 13 14  1  0  0  0
 13 38  1  0  0  0
 13 39  1  0  0  0
 14 19  1  0  0  0
 14 15  2  0  0  0
 15 16  1  0  0  0
 15 40  1  0  0  0
 16 17  2  0  0  0
 16 41  1  0  0  0
 17 18  1  0  0  0
 17 42  1  0  0  0
 18 23  1  0  0  0
 18 19  2  0  0  0
 19 20  1  0  0  0
 20 21  1  0  0  0
 20 43  1  0  0  0
 20 44  1  0  0  0
 21 22  1  0  0  0
 21 45  1  0  0  0
 21 46  1  0  0  0
 22 23  1  0  0  0
 22 47  1  0  0  0
 22 48  1  0  0  0
 23 49  1  0  0  0
 23 50  1  0  0  0
M  CHG  2   1   1   7   1
M  END
> <i_epik_Tot_Q>
2

> <i_epik_Tot_abs_Q>
2

> <i_f3d_flags>
0

> <i_lp_mmshare_version>
61128

> <i_m_Source_File_Index>
7

> <b_lp_Chiralities_Consistent>
1

> <b_m_subgroup_collapsed>
0

> <r_epik_Charging_Adjusted_Penalty>
0.573216

> <r_epik_Ionization_Penalty>
0.2891

> <r_epik_Ionization_Penalty_Charging>
0.2891

> <r_epik_Ionization_Penalty_Neutral>
0

> <r_epik_State_Penalty>
0.2842

> <r_lp_Energy>
5.86762

> <r_lp_tautomer_probability>
1

> <s_epik_Chemistry_Notes>
This compound contains an electron-poor aromatic ring that is susceptible to covalent hydrolysis at low pH, typically resulting in measured values for nitrogen ring protonation that are around two units higher than predicted values.

> <s_epik_cmdline>
J2VwaWtfcHl0aG9uJywgJy1waCcsICc3LjAnLCAnLXRuJywgJzgnLCAnLW1hJywgJzIwMCcsICctaW1hZScsICc8aW5maWxlLm1hZT4nLCAnLW9tYWUnLCAnPG91dGZpbGUubWFlPic=

> <s_epik_input>
W05IMl1bQ0gyXWMxbmMoW0NIMl1bTkgyXSljKFtDSDJdW09IXSljKG4xKVtDSDJdW0NIMl1jKFtjSF1bY0hdW2NIXTIpYyhjMjMpW0NIMl1bQ0gyXVtDSDJdW0NIMl0z

> <s_lp_Force_Field>
OPLS_2005

> <s_lp_Variant>
ligands.smi:3-1

> <s_m_Source_File>
all_ligands_prep.mae

> <s_m_Source_Path>
/home/jvilalta

> <s_m_entry_id>
109

> <s_m_entry_name>
ligands_prep.6

> <s_m_subgroup_title>
ligprep

> <s_m_subgroupid>
ligprep1

$$$$
ligands.smi:5
                    3D
 Schrodinger Suite 2023-4.
 37 39  0  0  1  0            999 V2000
   -3.7417    0.7986   -1.5420 N   0  3  0  0  0  0
   -2.9600    1.7877   -0.7820 C   0  0  0  0  0  0
   -1.9115    1.1024    0.0703 C   0  0  0  0  0  0
   -0.5813    0.9755   -0.3762 C   0  0  0  0  0  0
    0.3252    0.3028    0.4693 C   0  0  0  0  0  0
    1.7910    0.0965    0.1105 C   0  0  0  0  0  0
    2.0854    0.1535   -1.3181 N   0  0  0  0  0  0
    1.8153   -0.8222   -2.2021 C   0  0  0  0  0  0
    1.2914   -1.8917   -1.8890 O   0  0  0  0  0  0
    2.2268   -0.5489   -3.6220 C   0  0  0  0  0  0
    2.4062   -1.6105   -4.5345 C   0  0  0  0  0  0
    2.7564   -1.3931   -5.8191 N   0  0  0  0  0  0
    2.9314   -0.1125   -6.2191 C   0  0  0  0  0  0
    3.2991    0.1685   -7.5521 C   0  0  0  0  0  0
    3.4840    1.4931   -7.9884 C   0  0  0  0  0  0
    3.3015    2.5569   -7.0887 C   0  0  0  0  0  0
    3.4775    3.8339   -7.5028 F   0  0  0  0  0  0
    2.9354    2.2919   -5.7568 C   0  0  0  0  0  0
    2.7466    0.9685   -5.3051 C   0  0  0  0  0  0
    2.3931    0.7347   -4.0195 N   0  0  0  0  0  0
   -0.1792   -0.1719    1.6966 C   0  0  0  0  0  0
   -1.4705   -0.0160    2.0678 N   0  0  0  0  0  0
   -2.3309    0.6135    1.2603 N   0  0  0  0  0  0
   -4.4413    1.2721   -2.0953 H   0  0  0  0  0  0
   -4.1930    0.1655   -0.8970 H   0  0  0  0  0  0
   -2.4850    2.4817   -1.4761 H   0  0  0  0  0  0
   -3.6312    2.3713   -0.1506 H   0  0  0  0  0  0
   -0.2763    1.3772   -1.3312 H   0  0  0  0  0  0
    2.3758    0.8711    0.6070 H   0  0  0  0  0  0
    2.1349   -0.8565    0.5161 H   0  0  0  0  0  0
    2.5320    0.9913   -1.6628 H   0  0  0  0  0  0
    2.2720   -2.6416   -4.2405 H   0  0  0  0  0  0
    3.4411   -0.6430   -8.2509 H   0  0  0  0  0  0
    3.7655    1.6919   -9.0120 H   0  0  0  0  0  0
    2.7988    3.1170   -5.0732 H   0  0  0  0  0  0
    0.4614   -0.6899    2.3951 H   0  0  0  0  0  0
   -3.1257    0.2763   -2.1486 H   0  0  0  0  0  0
  1 24  1  0  0  0
  1 25  1  0  0  0
  1  2  1  0  0  0
  1 37  1  0  0  0
  2  3  1  0  0  0
  2 26  1  0  0  0
  2 27  1  0  0  0
  3 23  1  0  0  0
  3  4  2  0  0  0
  4  5  1  0  0  0
  4 28  1  0  0  0
  5  6  1  0  0  0
  5 21  2  0  0  0
  6  7  1  0  0  0
  6 29  1  0  0  0
  6 30  1  0  0  0
  7  8  1  0  0  0
  7 31  1  0  0  0
  8  9  2  0  0  0
  8 10  1  0  0  0
 10 20  1  0  0  0
 10 11  2  0  0  0
 11 12  1  0  0  0
 11 32  1  0  0  0
 12 13  2  0  0  0
 13 19  1  0  0  0
 13 14  1  0  0  0
 14 15  2  0  0  0
 14 33  1  0  0  0
 15 16  1  0  0  0
 15 34  1  0  0  0
 16 17  1  0  0  0
 16 18  2  0  0  0
 18 19  1  0  0  0
 18 35  1  0  0  0
 19 20  2  0  0  0
 21 22  1  0  0  0
 21 36  1  0  0  0
 22 23  2  0  0  0
M  CHG  1   1   1
M  END
> <i_epik_Tot_Q>
1

> <i_epik_Tot_abs_Q>
1

> <i_f3d_flags>
0

> <i_lp_mmshare_version>
61128

> <i_m_Source_File_Index>
15

> <b_lp_Chiralities_Consistent>
1

> <b_m_subgroup_collapsed>
0

> <r_epik_Charging_Adjusted_Penalty>
0.233354

> <r_epik_Ionization_Penalty>
0.1167

> <r_epik_Ionization_Penalty_Charging>
0.1167

> <r_epik_Ionization_Penalty_Neutral>
0

> <r_epik_State_Penalty>
0.1167

> <r_lp_Energy>
24.2453

> <r_lp_tautomer_probability>
1

> <s_epik_cmdline>
J2VwaWtfcHl0aG9uJywgJy1waCcsICc3LjAnLCAnLXRuJywgJzgnLCAnLW1hJywgJzIwMCcsICctaW1hZScsICc8aW5maWxlLm1hZT4nLCAnLW9tYWUnLCAnPG91dGZpbGUubWFlPic=

> <s_epik_input>
W05IMl1bQ0gyXWMxW2NIXWMoW2NIXW5uMSlbQ0gyXVtOSF1DKD1PKWMoW2NIXW4yKW5jKGMyMylbY0hdYyhGKVtjSF1bY0hdMw==

> <s_lp_Force_Field>
OPLS_2005

> <s_lp_Variant>
ligands.smi:5-1

> <s_m_Source_File>
all_ligands_prep.mae

> <s_m_Source_Path>
/home/jvilalta

> <s_m_entry_id>
117

> <s_m_entry_name>
ligands_prep.14

> <s_m_subgroup_title>
ligprep

> <s_m_subgroupid>
ligprep1

$$$$
ligands.smi:6
                    3D
 Schrodinger Suite 2023-4.
 43 45  0  0  1  0            999 V2000
   -0.8849    6.4755   -0.2849 N   0  3  0  0  0  0
   -1.9530    5.5571    0.1412 C   0  0  0  0  0  0
   -1.4659    4.1221    0.1231 C   0  0  0  0  0  0
   -1.5660    3.3558   -1.0569 C   0  0  0  0  0  0
   -1.1102    2.0235   -1.0768 C   0  0  0  0  0  0
   -0.5529    1.4474    0.0837 C   0  0  0  0  0  0
   -0.0623    0.0122    0.0653 C   0  0  0  0  0  0
    1.4721   -0.0705   -0.0302 C   0  0  0  0  0  0
    2.0238   -1.5061   -0.0578 C   0  0  0  0  0  0
    1.2276   -2.4453   -0.0892 O   0  0  0  0  0  0
    3.5183   -1.6743   -0.0439 C   0  0  0  0  0  0
    4.3577   -0.5304   -0.0545 C   0  0  0  0  0  0
    5.7615   -0.6517   -0.0359 C   0  0  0  0  0  0
    6.5761    0.5000   -0.0409 C   0  0  0  0  0  0
    7.9788    0.3730   -0.0201 C   0  0  0  0  0  0
    8.5714   -0.9043    0.0048 C   0  0  0  0  0  0
    7.7621   -2.0569    0.0089 C   0  0  0  0  0  0
    6.3574   -1.9329   -0.0111 C   0  0  0  0  0  0
    5.5399   -3.0774   -0.0063 C   0  0  0  0  0  0
    4.1353   -2.9589   -0.0223 C   0  0  0  0  0  0
    3.4151   -4.1212   -0.0137 O   0  0  0  0  0  0
   -0.4529    2.2134    1.2637 C   0  0  0  0  0  0
   -0.9066    3.5467    1.2834 C   0  0  0  0  0  0
   -1.2255    7.4259   -0.2596 H   0  0  0  0  0  0
   -0.5997    6.2438   -1.2257 H   0  0  0  0  0  0
   -2.2840    5.8290    1.1442 H   0  0  0  0  0  0
   -2.8113    5.6685   -0.5226 H   0  0  0  0  0  0
   -1.9921    3.7868   -1.9512 H   0  0  0  0  0  0
   -1.1907    1.4456   -1.9860 H   0  0  0  0  0  0
   -0.4116   -0.4843    0.9718 H   0  0  0  0  0  0
   -0.5238   -0.5126   -0.7728 H   0  0  0  0  0  0
    1.8056    0.4440   -0.9319 H   0  0  0  0  0  0
    1.9097    0.4529    0.8203 H   0  0  0  0  0  0
    3.9442    0.4663   -0.0766 H   0  0  0  0  0  0
    6.1306    1.4840   -0.0595 H   0  0  0  0  0  0
    8.6006    1.2562   -0.0229 H   0  0  0  0  0  0
    9.6472   -1.0000    0.0209 H   0  0  0  0  0  0
    8.2242   -3.0333    0.0281 H   0  0  0  0  0  0
    5.9925   -4.0585    0.0112 H   0  0  0  0  0  0
    3.9570   -4.8952   -0.0034 H   0  0  0  0  0  0
   -0.0263    1.7796    2.1565 H   0  0  0  0  0  0
   -0.8234    4.1243    2.1925 H   0  0  0  0  0  0
   -0.0947    6.3832    0.3372 H   0  0  0  0  0  0
  1 24  1  0  0  0
  1 25  1  0  0  0
  1  2  1  0  0  0
  1 43  1  0  0  0
  2  3  1  0  0  0
  2 26  1  0  0  0
  2 27  1  0  0  0
  3 23  1  0  0  0
  3  4  2  0  0  0
  4  5  1  0  0  0
  4 28  1  0  0  0
  5  6  2  0  0  0
  5 29  1  0  0  0
  6  7  1  0  0  0
  6 22  1  0  0  0
  7  8  1  0  0  0
  7 30  1  0  0  0
  7 31  1  0  0  0
  8  9  1  0  0  0
  8 32  1  0  0  0
  8 33  1  0  0  0
  9 10  2  0  0  0
  9 11  1  0  0  0
 11 20  1  0  0  0
 11 12  2  0  0  0
 12 13  1  0  0  0
 12 34  1  0  0  0
 13 18  2  0  0  0
 13 14  1  0  0  0
 14 15  2  0  0  0
 14 35  1  0  0  0
 15 16  1  0  0  0
 15 36  1  0  0  0
 16 17  2  0  0  0
 16 37  1  0  0  0
 17 18  1  0  0  0
 17 38  1  0  0  0
 18 19  1  0  0  0
 19 20  2  0  0  0
 19 39  1  0  0  0
 20 21  1  0  0  0
 21 40  1  0  0  0
 22 23  2  0  0  0
 22 41  1  0  0  0
 23 42  1  0  0  0
M  CHG  1   1   1
M  END
> <i_epik_Tot_Q>
1

> <i_epik_Tot_abs_Q>
1

> <i_f3d_flags>
0

> <i_lp_mmshare_version>
61128

> <i_m_Source_File_Index>
17

> <b_lp_Chiralities_Consistent>
1

> <b_m_subgroup_collapsed>
0

> <r_epik_Charging_Adjusted_Penalty>
0.100778

> <r_epik_Ionization_Penalty>
0.0751

> <r_epik_Ionization_Penalty_Charging>
0.0266

> <r_epik_Ionization_Penalty_Neutral>
0.0484

> <r_epik_State_Penalty>
0.0741

> <r_lp_Energy>
23.3245

> <r_lp_tautomer_probability>
0.9999

> <s_epik_cmdline>
J2VwaWtfcHl0aG9uJywgJy1waCcsICc3LjAnLCAnLXRuJywgJzgnLCAnLW1hJywgJzIwMCcsICctaW1hZScsICc8aW5maWxlLm1hZT4nLCAnLW9tYWUnLCAnPG91dGZpbGUubWFlPic=

> <s_epik_input>
W05IMl1bQ0gyXWMxW2NIXVtjSF1jKFtjSF1bY0hdMSlbQ0gyXVtDSDJdQyg9TyljKFtjSF0yKWMoW09IXSlbY0hdYyhjMjMpW2NIXVtjSF1bY0hdW2NIXTM=

> <s_lp_Force_Field>
OPLS_2005

> <s_lp_Variant>
ligands.smi:6-1

> <s_m_Source_File>
all_ligands_prep.mae

> <s_m_Source_Path>
/home/jvilalta

> <s_m_entry_id>
119

> <s_m_entry_name>
ligands_prep.16

> <s_m_subgroup_title>
ligprep

> <s_m_subgroupid>
ligprep1

$$$$
ligands.smi:7
                    3D
 Schrodinger Suite 2023-4.
 53 55  0  0  1  0            999 V2000
   -1.6902    0.5677    2.8127 N   0  3  0  0  0  0
   -2.1479    1.8335    2.2174 C   0  0  0  0  0  0
   -2.7126    1.6343    0.8441 C   0  0  0  0  0  0
   -4.0194    1.6160    0.4384 C   0  0  0  0  0  0
   -4.0458    1.3949   -0.9654 C   0  0  0  0  0  0
   -2.7524    1.2791   -1.3845 C   0  0  0  0  0  0
   -1.9242    1.4211   -0.2848 N   0  0  0  0  0  0
   -0.4739    1.3432   -0.3414 C   0  0  0  0  0  0
    0.0147   -0.1142   -0.2744 C   0  0  0  0  0  0
    1.4595   -0.1831   -0.0985 N   0  0  0  0  0  0
    2.0950   -0.0141    1.0728 C   0  0  0  0  0  0
    1.5015    0.2073    2.1290 O   0  0  0  0  0  0
    3.6280   -0.0854    1.0609 C   0  0  0  0  0  0
    4.2453    1.1908    0.4530 C   0  0  0  0  0  0
    5.7804    1.0966    0.4199 C   0  0  0  0  0  0
    6.2087   -0.1021   -0.2982 N   0  0  0  0  0  0
    7.0587   -0.0430   -1.4036 C   0  0  0  0  0  0
    7.0834   -0.8156   -2.5182 C   0  0  0  0  0  0
    6.1471   -1.8961   -2.8769 C   0  0  0  0  0  0
    6.2532   -2.5793   -3.8937 O   0  0  0  0  0  0
    8.1711   -0.4223   -3.5082 C   0  0  0  0  0  0
    8.7239    0.7279   -2.7125 C   0  0  0  0  0  0
    9.7512    1.3887   -3.2596 O   0  0  0  0  0  0
    8.1102    0.9400   -1.5480 C   0  0  0  0  0  0
    5.7079   -1.3257    0.3259 C   0  0  0  0  0  0
    4.1692   -1.3409    0.3428 C   0  0  0  0  0  0
   -1.3383    0.7405    3.7436 H   0  0  0  0  0  0
   -0.9526    0.1753    2.2446 H   0  0  0  0  0  0
   -2.9106    2.2597    2.8699 H   0  0  0  0  0  0
   -1.3251    2.5480    2.2033 H   0  0  0  0  0  0
   -4.8731    1.7515    1.0863 H   0  0  0  0  0  0
   -4.9174    1.3269   -1.5998 H   0  0  0  0  0  0
   -2.3416    1.1053   -2.3687 H   0  0  0  0  0  0
   -0.1347    1.8105   -1.2670 H   0  0  0  0  0  0
   -0.0507    1.9366    0.4678 H   0  0  0  0  0  0
   -0.4777   -0.6528    0.5366 H   0  0  0  0  0  0
   -0.2497   -0.6382   -1.1933 H   0  0  0  0  0  0
    2.0161   -0.3589   -0.9230 H   0  0  0  0  0  0
    3.9505   -0.1423    2.1022 H   0  0  0  0  0  0
    3.8754    1.3415   -0.5625 H   0  0  0  0  0  0
    3.9437    2.0683    1.0266 H   0  0  0  0  0  0
    6.1824    1.9945   -0.0491 H   0  0  0  0  0  0
    6.1810    1.0672    1.4338 H   0  0  0  0  0  0
    5.3283   -2.0636   -2.1818 H   0  0  0  0  0  0
    8.9061   -1.2157   -3.6491 H   0  0  0  0  0  0
    7.7611   -0.0971   -4.4652 H   0  0  0  0  0  0
    9.9982    2.0771   -2.6611 H   0  0  0  0  0  0
    8.3638    1.7110   -0.8352 H   0  0  0  0  0  0
    6.1031   -2.2135   -0.1656 H   0  0  0  0  0  0
    6.0840   -1.3668    1.3491 H   0  0  0  0  0  0
    3.8155   -2.2437    0.8421 H   0  0  0  0  0  0
    3.7989   -1.3857   -0.6816 H   0  0  0  0  0  0
   -2.4631   -0.0808    2.8584 H   0  0  0  0  0  0
  1 27  1  0  0  0
  1 28  1  0  0  0
  1  2  1  0  0  0
  1 53  1  0  0  0
  2  3  1  0  0  0
  2 29  1  0  0  0
  2 30  1  0  0  0
  3  7  1  0  0  0
  3  4  2  0  0  0
  4  5  1  0  0  0
  4 31  1  0  0  0
  5  6  2  0  0  0
  5 32  1  0  0  0
  6  7  1  0  0  0
  6 33  1  0  0  0
  7  8  1  0  0  0
  8  9  1  0  0  0
  8 34  1  0  0  0
  8 35  1  0  0  0
  9 10  1  0  0  0
  9 36  1  0  0  0
  9 37  1  0  0  0
 10 11  1  0  0  0
 10 38  1  0  0  0
 11 12  2  0  0  0
 11 13  1  0  0  0
 13 26  1  0  0  0
 13 14  1  0  0  0
 13 39  1  0  0  0
 14 15  1  0  0  0
 14 40  1  0  0  0
 14 41  1  0  0  0
 15 16  1  0  0  0
 15 42  1  0  0  0
 15 43  1  0  0  0
 16 17  1  0  0  0
 16 25  1  0  0  0
 17 24  1  0  0  0
 17 18  2  0  0  0
 18 19  1  0  0  0
 18 21  1  0  0  0
 19 20  2  0  0  0
 19 44  1  0  0  0
 21 22  1  0  0  0
 21 45  1  0  0  0
 21 46  1  0  0  0
 22 23  1  0  0  0
 22 24  2  0  0  0
 23 47  1  0  0  0
 24 48  1  0  0  0
 25 26  1  0  0  0
 25 49  1  0  0  0
 25 50  1  0  0  0
 26 51  1  0  0  0
 26 52  1  0  0  0
M  CHG  1   1   1
M  END
> <i_epik_Tot_Q>
1

> <i_epik_Tot_abs_Q>
1

> <i_f3d_flags>
0

> <i_lp_mmshare_version>
61128

> <i_m_Source_File_Index>
20

> <b_lp_Chiralities_Consistent>
1

> <b_m_subgroup_collapsed>
0

> <r_epik_Charging_Adjusted_Penalty>
0.0461361

> <r_epik_Ionization_Penalty>
0.0399

> <r_epik_Ionization_Penalty_Charging>
0.0066

> <r_epik_Ionization_Penalty_Neutral>
0.0332

> <r_epik_State_Penalty>
0.0395

> <r_lp_Energy>
32.9188

> <s_epik_cmdline>
J2VwaWtfcHl0aG9uJywgJy1waCcsICc3LjAnLCAnLXRuJywgJzgnLCAnLW1hJywgJzIwMCcsICctaW1hZScsICc8aW5maWxlLm1hZT4nLCAnLW9tYWUnLCAnPG91dGZpbGUubWFlPic=

> <s_epik_input>
W05IMl1bQ0gyXWMxW2NIXVtjSF1bY0hdbjFbQ0gyXVtDSDJdW05IXUMoPU8pW0NIXTJbQ0gyXVtDSDJdTihbQ0gyXVtDSDJdMilDMz1DKFtDSF09TylbQ0gyXUMoW09IXSk9W0NIXTM=

> <s_lp_Force_Field>
OPLS_2005

> <s_lp_Variant>
ligands.smi:7-1

> <s_m_Source_File>
all_ligands_prep.mae

> <s_m_Source_Path>
/home/jvilalta

> <s_m_entry_id>
122

> <s_m_entry_name>
ligands_prep.19

> <s_m_subgroup_title>
ligprep

> <s_m_subgroupid>
ligprep1

$$$$
ligands.smi:8
                    3D
 Schrodinger Suite 2023-4.
 42 44  0  0  1  0            999 V2000
    0.7991    4.8172   -2.5466 N   0  3  0  0  0  0
   -0.5764    4.3164   -2.3945 C   0  0  0  0  0  0
   -0.7181    3.5285   -1.1083 C   0  0  0  0  0  0
   -1.2670    4.1235    0.0472 C   0  0  0  0  0  0
   -1.3641    3.3475    1.2186 C   0  0  0  0  0  0
   -0.9075    2.0158    1.1904 C   0  0  0  0  0  0
   -0.3730    1.5131   -0.0146 C   0  0  0  0  0  0
    0.1416    0.0894   -0.0996 C   0  0  0  0  0  0
    1.6706    0.0175    0.0147 C   0  0  0  0  0  0
    2.1783   -1.4059   -0.0621 C   0  0  0  0  0  0
    2.4869   -1.9874   -1.2357 N   0  0  0  0  0  0
    2.9913   -3.5715   -0.9587 S   0  0  0  0  0  0
    2.7319   -3.4034    0.7545 C   0  0  0  0  0  0
    3.0128   -4.4744    1.7888 C   0  0  1  0  0  0
    2.8382   -5.6782    1.2410 F   0  0  0  0  0  0
    4.4317   -4.3628    2.3733 C   0  0  1  0  0  0
    4.7927   -5.4354    3.4024 C   0  0  0  0  0  0
    6.3003   -5.4641    3.2923 C   0  0  0  0  0  0
    6.5030   -5.2761    1.7916 C   0  0  0  0  0  0
    5.4266   -4.4511    1.3545 O   0  0  0  0  0  0
    2.3038   -2.1740    1.0370 N   0  0  0  0  0  0
   -0.2746    2.2523   -1.1428 N   0  0  0  0  0  0
    0.8790    5.3352   -3.4096 H   0  0  0  0  0  0
    1.4363    4.0334   -2.5614 H   0  0  0  0  0  0
    2.2732   -4.3957    2.5862 H   0  0  0  0  0  0
    4.5497   -3.3842    2.8421 H   0  0  0  0  0  0
   -1.2695    5.1585   -2.3986 H   0  0  0  0  0  0
   -0.8286    3.6863   -3.2484 H   0  0  0  0  0  0
   -1.6072    5.1488    0.0404 H   0  0  0  0  0  0
   -1.7795    3.7664    2.1234 H   0  0  0  0  0  0
   -0.9663    1.3973    2.0743 H   0  0  0  0  0  0
   -0.3184   -0.5065    0.6898 H   0  0  0  0  0  0
   -0.1837   -0.3497   -1.0441 H   0  0  0  0  0  0
    2.1370    0.6014   -0.7798 H   0  0  0  0  0  0
    1.9968    0.4574    0.9581 H   0  0  0  0  0  0
    4.4411   -5.1971    4.4067 H   0  0  0  0  0  0
    4.3847   -6.4065    3.1188 H   0  0  0  0  0  0
    6.7326   -4.6256    3.8398 H   0  0  0  0  0  0
    6.7424   -6.3861    3.6707 H   0  0  0  0  0  0
    7.4695   -4.8321    1.5527 H   0  0  0  0  0  0
    6.4341   -6.2349    1.2762 H   0  0  0  0  0  0
    1.0250    5.4181   -1.7668 H   0  0  0  0  0  0
  1 23  1  0  0  0
  1 24  1  0  0  0
  1  2  1  0  0  0
  1 42  1  0  0  0
  2  3  1  0  0  0
  2 27  1  0  0  0
  2 28  1  0  0  0
  3 22  1  0  0  0
  3  4  2  0  0  0
  4  5  1  0  0  0
  4 29  1  0  0  0
  5  6  2  0  0  0
  5 30  1  0  0  0
  6  7  1  0  0  0
  6 31  1  0  0  0
  7  8  1  0  0  0
  7 22  2  0  0  0
  8  9  1  0  0  0
  8 32  1  0  0  0
  8 33  1  0  0  0
  9 10  1  0  0  0
  9 34  1  0  0  0
  9 35  1  0  0  0
 10 21  1  0  0  0
 10 11  2  0  0  0
 11 12  1  0  0  0
 12 13  1  0  0  0
 13 14  1  0  0  0
 13 21  2  0  0  0
 14 25  1  0  0  0
 14 15  1  0  0  0
 14 16  1  0  0  0
 16 26  1  0  0  0
 16 20  1  0  0  0
 16 17  1  0  0  0
 17 18  1  0  0  0
 17 36  1  0  0  0
 17 37  1  0  0  0
 18 19  1  0  0  0
 18 38  1  0  0  0
 18 39  1  0  0  0
 19 20  1  0  0  0
 19 40  1  0  0  0
 19 41  1  0  0  0
M  CHG  1   1   1
M  END
> <i_epik_Tot_Q>
1

> <i_epik_Tot_abs_Q>
1

> <i_f3d_flags>
0

> <i_lp_mmshare_version>
61128

> <i_m_Source_File_Index>
23

> <b_lp_Chiralities_Consistent>
1

> <b_m_subgroup_collapsed>
0

> <r_epik_Charging_Adjusted_Penalty>
0.114005

> <r_epik_Ionization_Penalty>
0.0538

> <r_epik_Ionization_Penalty_Charging>
0.0537

> <r_epik_Ionization_Penalty_Neutral>
0.0001

> <r_epik_State_Penalty>
0.0603

> <r_lp_Energy>
6.46568

> <r_lp_tautomer_probability>
1

> <s_epik_cmdline>
J2VwaWtfcHl0aG9uJywgJy1waCcsICc3LjAnLCAnLXRuJywgJzgnLCAnLW1hJywgJzIwMCcsICctaW1hZScsICc8aW5maWxlLm1hZT4nLCAnLW9tYWUnLCAnPG91dGZpbGUubWFlPic=

> <s_epik_input>
W05IMl1bQ0gyXWMxW2NIXVtjSF1bY0hdYyhuMSlbQ0gyXVtDSDJdYzJuc2MobjIpW0NAQEhdKEYpW0NASF0zW0NIMl1bQ0gyXVtDSDJdTzM=

> <s_lp_Force_Field>
OPLS_2005

> <s_lp_Variant>
ligands.smi:8-1

> <s_m_Source_File>
all_ligands_prep.mae

> <s_m_Source_Path>
/home/jvilalta

> <s_m_entry_id>
125

> <s_m_entry_name>
ligands_prep.22

> <s_m_subgroup_title>
ligprep

> <s_m_subgroupid>
ligprep1

$$$$
ligands.smi:9
                    3D
 Schrodinger Suite 2023-4.
 46 48  0  0  1  0            999 V2000
   -0.6850    6.3361    0.4231 N   0  3  0  0  0  0
   -1.8350    5.4207    0.3417 C   0  0  0  0  0  0
   -1.3704    3.9876    0.1809 C   0  0  0  0  0  0
   -1.2744    3.1245    1.2909 C   0  0  0  0  0  0
   -0.8192    1.8163    1.0519 C   0  0  0  0  0  0
   -0.4930    1.4782   -0.2769 C   0  0  0  0  0  0
    0.0150    0.0918   -0.6285 C   0  0  0  0  0  0
    1.5336   -0.0526   -0.4801 C   0  0  0  0  0  0
    2.2288    0.8262    0.0296 O   0  0  0  0  0  0
    2.1659   -1.3422   -1.0049 C   0  0  0  0  0  0
    1.7566   -2.5667   -0.1951 C   0  0  0  0  0  0
    0.7300   -3.3808   -0.7110 C   0  0  0  0  0  0
    0.3114   -4.5283   -0.0197 C   0  0  0  0  0  0
    0.9099   -4.8877    1.2039 C   0  0  0  0  0  0
    0.4075   -6.1453    1.9008 C   0  0  0  0  0  0
    1.3113   -7.2821    1.6568 N   0  3  0  0  0  0
    1.9511   -4.0807    1.7385 C   0  0  0  0  0  0
    2.5829   -4.4171    2.9614 C   0  0  0  0  0  0
    3.6121   -3.6162    3.4866 C   0  0  0  0  0  0
    4.0281   -2.4675    2.7954 C   0  0  0  0  0  0
    3.4161   -2.1215    1.5783 C   0  0  0  0  0  0
    2.3763   -2.9152    1.0353 C   0  0  0  0  0  0
   -0.6109    2.3552   -1.3019 N   0  0  0  0  0  0
   -1.0443    3.6000   -1.0746 N   0  0  0  0  0  0
   -1.0141    7.2857    0.5214 H   0  0  0  0  0  0
   -0.1348    6.2547   -0.4202 H   0  0  0  0  0  0
    0.9516   -8.1056    2.1178 H   0  0  0  0  0  0
    2.2289   -7.0658    2.0192 H   0  0  0  0  0  0
   -2.4396    5.5206    1.2435 H   0  0  0  0  0  0
   -2.4647    5.7051   -0.5023 H   0  0  0  0  0  0
   -1.5355    3.4502    2.2870 H   0  0  0  0  0  0
   -0.7171    1.1027    1.8566 H   0  0  0  0  0  0
   -0.4746   -0.6394    0.0152 H   0  0  0  0  0  0
   -0.2669   -0.1489   -1.6540 H   0  0  0  0  0  0
    1.8598   -1.4778   -2.0424 H   0  0  0  0  0  0
    3.2514   -1.2459   -1.0214 H   0  0  0  0  0  0
    0.2548   -3.1249   -1.6470 H   0  0  0  0  0  0
   -0.4787   -5.1342   -0.4386 H   0  0  0  0  0  0
    0.2880   -5.9793    2.9711 H   0  0  0  0  0  0
   -0.5822   -6.4082    1.5259 H   0  0  0  0  0  0
    2.2978   -5.2931    3.5225 H   0  0  0  0  0  0
    4.0836   -3.8841    4.4208 H   0  0  0  0  0  0
    4.8183   -1.8506    3.1974 H   0  0  0  0  0  0
    3.7656   -1.2321    1.0773 H   0  0  0  0  0  0
    1.3757   -7.4530    0.6633 H   0  0  0  0  0  0
   -0.1153    6.0906    1.2200 H   0  0  0  0  0  0
  1 25  1  0  0  0
  1 26  1  0  0  0
  1  2  1  0  0  0
  1 46  1  0  0  0
  2  3  1  0  0  0
  2 29  1  0  0  0
  2 30  1  0  0  0
  3 24  1  0  0  0
  3  4  2  0  0  0
  4  5  1  0  0  0
  4 31  1  0  0  0
  5  6  2  0  0  0
  5 32  1  0  0  0
  6  7  1  0  0  0
  6 23  1  0  0  0
  7  8  1  0  0  0
  7 33  1  0  0  0
  7 34  1  0  0  0
  8  9  2  0  0  0
  8 10  1  0  0  0
 10 11  1  0  0  0
 10 35  1  0  0  0
 10 36  1  0  0  0
 11 22  1  0  0  0
 11 12  2  0  0  0
 12 13  1  0  0  0
 12 37  1  0  0  0
 13 14  2  0  0  0
 13 38  1  0  0  0
 14 15  1  0  0  0
 14 17  1  0  0  0
 15 16  1  0  0  0
 15 39  1  0  0  0
 15 40  1  0  0  0
 16 27  1  0  0  0
 16 28  1  0  0  0
 16 45  1  0  0  0
 17 22  2  0  0  0
 17 18  1  0  0  0
 18 19  2  0  0  0
 18 41  1  0  0  0
 19 20  1  0  0  0
 19 42  1  0  0  0
 20 21  2  0  0  0
 20 43  1  0  0  0
 21 22  1  0  0  0
 21 44  1  0  0  0
 23 24  2  0  0  0
M  CHG  2   1   1  16   1
M  END
> <i_epik_Tot_Q>
2

> <i_epik_Tot_abs_Q>
2

> <i_f3d_flags>
0

> <i_lp_mmshare_version>
61128

> <i_m_Source_File_Index>
26

> <b_lp_Chiralities_Consistent>
1

> <b_m_subgroup_collapsed>
0

> <r_epik_Charging_Adjusted_Penalty>
0.270512

> <r_epik_Ionization_Penalty>
0.1376

> <r_epik_Ionization_Penalty_Charging>
0.1374

> <r_epik_Ionization_Penalty_Neutral>
0.0002

> <r_epik_State_Penalty>
0.1331

> <r_lp_Energy>
19.581

> <r_lp_tautomer_probability>
1

> <s_epik_cmdline>
J2VwaWtfcHl0aG9uJywgJy1waCcsICc3LjAnLCAnLXRuJywgJzgnLCAnLW1hJywgJzIwMCcsICctaW1hZScsICc8aW5maWxlLm1hZT4nLCAnLW9tYWUnLCAnPG91dGZpbGUubWFlPic=

> <s_epik_input>
W05IMl1bQ0gyXWMxW2NIXVtjSF1jKG5uMSlbQ0gyXUMoPU8pW0NIMl1jKFtjSF1bY0hdYzJbQ0gyXVtOSDJdKWMoYzIzKVtjSF1bY0hdW2NIXVtjSF0z

> <s_lp_Force_Field>
OPLS_2005

> <s_lp_Variant>
ligands.smi:9-1

> <s_m_Source_File>
all_ligands_prep.mae

> <s_m_Source_Path>
/home/jvilalta

> <s_m_entry_id>
128

> <s_m_entry_name>
ligands_prep.25

> <s_m_subgroup_title>
ligprep

> <s_m_subgroupid>
ligprep1

$$$$
